Version 4
SHEET 1 880 800
WIRE 128 256 96 256
WIRE 192 256 128 256
WIRE 432 256 192 256
WIRE 432 288 384 288
WIRE 544 288 496 288
WIRE 192 352 192 256
WIRE 272 352 192 352
WIRE 544 352 544 288
WIRE 592 352 544 352
WIRE 272 384 192 384
WIRE 352 384 336 384
WIRE 384 384 384 288
WIRE 384 384 352 384
WIRE 592 384 544 384
WIRE 704 384 656 384
WIRE 384 464 384 384
WIRE 432 464 384 464
WIRE 144 496 96 496
WIRE 192 496 192 384
WIRE 192 496 144 496
WIRE 432 496 192 496
WIRE 544 496 544 384
WIRE 544 496 496 496
WIRE 352 592 352 384
WIRE 512 592 352 592
WIRE 512 624 480 624
WIRE 640 624 576 624
WIRE 480 672 480 624
FLAG 128 256 A
IOPIN 128 256 In
FLAG 144 496 B
IOPIN 144 496 In
FLAG 704 384 Sum
IOPIN 704 384 Out
FLAG 480 672 0
FLAG 640 624 Carry
IOPIN 640 624 Out
FLAG 16 256 0
FLAG 16 496 0
SYMBOL and 304 304 R0
SYMATTR InstName A1
SYMBOL and 464 208 R0
SYMATTR InstName A2
SYMBOL and 464 416 R0
SYMATTR InstName A3
SYMBOL and 624 304 R0
SYMATTR InstName A4
SYMBOL and 544 544 R0
SYMATTR InstName A5
SYMBOL voltage 112 256 R90
WINDOW 0 -32 56 VBottom 2
WINDOW 3 38 99 VTop 2
SYMATTR InstName V1
SYMATTR Value PULSE(0 5 0 10p 10p 10u 20u)
SYMBOL voltage 112 496 R90
WINDOW 0 -32 56 VBottom 2
WINDOW 3 39 100 VTop 2
SYMATTR InstName V2
SYMATTR Value PULSE(0 5 0 10p 10p 20u 40u)
TEXT 176 784 Left 2 !.tran 40u
